T42/data/state_estimation/PT_Dx_01_2040_W_Bd/PT_Dx_01_2040_W_Bd_t9.csv
bus,vm_pu,va_degree,p_mw,q_mvar
1,0.967174,-0.088502,-11.560589,-4.569072
2,1.000014,0.000084,25.876793,10.470425
3,0.965441,-0.089830,-0.000034,-0.000046
4,0.965365,-0.089644,-0.000049,0.000016
5,0.965251,-0.090270,0.000002,0.000076
6,0.965247,-0.089111,-0.036143,-0.018552
7,0.964250,-0.089874,-0.075177,-0.038418
8,0.964690,-0.089471,-0.023330,-0.011872
9,0.963902,-0.090464,-0.420206,-0.215216
10,0.964310,-0.089481,-2.780151,-1.424146
11,0.965191,-0.089096,-0.597764,-0.306215
12,0.959484,-0.092211,-0.007279,-0.003797
13,0.963900,-0.090064,-0.042214,-0.016722
14,0.964654,-0.089467,-1.305590,-0.659457
15,0.959993,-0.093009,-0.032450,-0.016532
16,0.964718,-0.089232,-0.009973,-0.005159
17,0.964451,-0.089421,-0.022524,-0.011488
18,0.963487,-0.089235,-0.040188,-0.020652
19,0.960324,-0.092431,-0.071507,-0.036658
20,0.964366,-0.090007,-1.233287,-0.622409
21,0.960942,-0.093076,-0.004648,-0.001923
22,0.964053,-0.090025,-0.004826,-0.001871
23,0.959563,-0.092755,-0.200604,-0.102864
24,0.959201,-0.092926,-0.079150,-0.031330
25,0.959928,-0.091919,-0.008217,-0.003273
26,0.963638,-0.089289,-0.042230,-0.021637
27,0.963902,-0.088953,-0.003281,-0.001625
28,0.960206,-0.093641,-0.144971,-0.074302
29,0.965517,-0.089629,-0.045260,-0.023151
30,0.964809,-0.089859,-0.163350,-0.083617
31,0.963850,-0.089850,-0.021082,-0.010801
32,0.965301,-0.089925,-0.139956,-0.071660
33,0.963657,-0.090460,-0.483353,-0.238027
34,0.959991,-0.092917,-0.012792,-0.006486
35,0.960739,-0.092861,-0.029582,-0.015138
36,0.963860,-0.089783,-0.011492,-0.005889
37,0.964690,-0.088976,-0.001678,-0.000713
38,0.960484,-0.092264,-0.104311,-0.053476
39,0.964124,-0.090108,-0.134655,-0.069032
40,0.959669,-0.093061,-0.013572,-0.005406
41,0.959855,-0.092057,-0.016362,-0.006543
42,0.959710,-0.092980,-0.039311,-0.020116
43,0.959923,-0.092648,-0.145979,-0.074832
44,0.959906,-0.093080,-0.057324,-0.029260
45,0.960198,-0.092545,-0.001479,-0.000569
46,0.963140,-0.090856,-0.101199,-0.051871
47,0.961197,-0.092196,-0.284671,-0.145870
48,0.964754,-0.089358,-0.006530,-0.003340
49,0.965054,-0.090805,-0.028760,-0.014676
50,0.963870,-0.089488,-0.000382,-0.000248
51,0.965100,-0.089499,-0.021804,-0.008603
52,0.965102,-0.090614,-0.041322,-0.021137
53,0.960072,-0.093234,-0.337370,-0.172882
54,0.963848,-0.089368,-0.022779,-0.009090
55,0.964043,-0.089678,-0.048501,-0.024757
56,0.963491,-0.090361,-0.032193,-0.016561
57,0.963721,-0.089627,-0.029784,-0.015253
58,0.960134,-0.092824,-0.010877,-0.005555
59,0.959951,-0.092721,-0.044009,-0.017373
60,0.959490,-0.093176,-0.017825,-0.006937
61,0.964908,-0.090088,-0.780761,-0.390538
62,0.965418,-0.089909,-0.009521,-0.004970
63,0.960783,-0.093053,-0.000697,-0.000329
64,0.964548,-0.090127,-0.266409,-0.136490
65,0.965464,-0.090044,-0.435690,-0.213694
66,0.964630,-0.088733,-0.322192,-0.165053
67,0.964931,-0.089976,-0.048256,-0.024731
68,0.960200,-0.092729,-0.148393,-0.076074
69,0.964339,-0.091175,-0.020220,-0.008050
70,0.964414,-0.089783,-0.042155,-0.021627
71,0.959926,-0.093433,-0.016948,-0.008613
72,0.960490,-0.092781,-0.036705,-0.018886
73,0.960353,-0.092966,-0.010635,-0.004187
74,0.960307,-0.093149,-0.007190,-0.003720
75,0.961111,-0.091942,-0.170455,-0.087257
76,0.964656,-0.089678,-0.042803,-0.021909
77,0.965298,-0.088968,-0.018685,-0.009636
78,0.964201,-0.089858,-0.187909,-0.096335
79,0.965120,-0.089554,-0.149711,-0.076634
80,0.961477,-0.092778,0.000084,0.000032
81,0.959659,-0.093834,-0.001839,-0.000939
82,0.963977,-0.089413,-0.012588,-0.006492
83,0.964667,-0.088954,-0.056473,-0.028920
84,0.963708,-0.089578,-0.020826,-0.010700
85,0.960386,-0.093033,-0.000051,0.000038
86,0.965561,-0.089841,-0.068210,-0.026976
87,0.965521,-0.089186,-0.084196,-0.043147
88,0.965161,-0.089603,-0.022198,-0.011368
89,0.964230,-0.089324,-0.012238,-0.006211
90,0.964420,-0.090008,-0.032319,-0.016549
91,0.960785,-0.092985,-0.046135,-0.023527
92,0.960012,-0.093141,-0.027509,-0.014096
93,0.963659,-0.089568,-0.042570,-0.021794
94,0.961573,-0.092658,-0.088215,-0.045274
95,0.965102,-0.089776,-0.220728,-0.113057
96,0.959607,-0.092533,-0.025777,-0.010167
97,0.960231,-0.092630,-0.093158,-0.047711
98,0.959965,-0.092658,-0.058731,-0.023162
99,0.964210,-0.090190,-0.366270,-0.178229
100,0.964758,-0.089992,-0.041298,-0.021183
101,0.962958,-0.089809,-0.073595,-0.029077
102,0.965032,-0.088834,-0.263536,-0.125499
103,0.963847,-0.088915,-0.039042,-0.015370
104,0.959686,-0.092529,-0.146820,-0.058045
105,0.964715,-0.089735,-0.001793,-0.000739
106,0.963997,-0.089737,0.000006,-0.000051
107,0.964523,-0.090179,0.000058,0.000086
108,0.964196,-0.089877,0.000072,0.000014
109,0.964419,-0.089841,-0.000009,0.000088
110,0.960026,-0.093093,0.000047,-0.000026
111,0.959959,-0.091972,-0.000039,-0.000086
112,0.964335,-0.089660,-0.000008,-0.000083
113,0.964122,-0.090081,0.000066,0.000031
114,0.960702,-0.093800,-0.000052,0.000100
115,0.959285,-0.093482,-0.000074,-0.000008
116,0.964227,-0.089921,-0.000071,-0.000017
117,0.961337,-0.093095,-0.000039,0.000169
118,0.964762,-0.089746,-0.000009,-0.000037
119,0.964275,-0.089181,0.000008,-0.000060
120,0.964307,-0.089085,-0.000043,0.000012
121,0.964464,-0.089544,0.000053,0.000038
122,0.963870,-0.090137,0.000070,0.000093
123,0.963570,-0.091386,-0.000030,0.000025
124,0.964868,-0.089580,-0.000044,0.000073
125,0.963501,-0.090147,-0.000062,-0.000000
126,0.960743,-0.092527,0.000066,0.000054
127,0.964956,-0.089249,-0.000050,-0.000085
128,0.961097,-0.092484,0.000098,0.000035
129,0.959603,-0.092713,0.000013,0.000099
130,0.959305,-0.092364,0.000113,-0.000059
131,0.965253,-0.088813,0.000057,0.000018
132,0.961097,-0.092532,-0.000110,-0.000020
133,0.964124,-0.089878,0.000039,0.000078
134,0.965785,-0.089511,-0.000043,0.000093
135,0.960937,-0.092236,-0.000037,0.000055
136,0.961131,-0.092331,0.000110,-0.000047
137,0.960414,-0.092814,0.000001,0.000000
138,0.960110,-0.092901,-0.000035,-0.000023
139,0.960059,-0.093873,-0.000049,0.000041
140,0.964251,-0.090226,0.000041,0.000131
141,0.959986,-0.091739,-0.000004,-0.000054
142,0.960122,-0.093389,-0.000011,-0.000023
143,0.961354,-0.092043,0.000042,0.000039
144,0.966191,-0.090554,-0.000077,0.000037
145,0.965397,-0.089259,0.000063,0.000015
146,0.963815,-0.090098,0.000008,-0.000054
147,0.963974,-0.089491,0.000056,-0.000028
148,0.965212,-0.090406,0.000126,-0.000019
149,0.959524,-0.094070,-0.000001,0.000033
150,0.960368,-0.092258,-0.000051,-0.000067
151,0.965323,-0.089432,-0.000012,0.000006
152,0.963974,-0.090480,-0.000012,-0.000059
153,0.964845,-0.089789,-0.000073,0.000031
154,0.965048,-0.089485,0.000022,0.000064
155,0.959128,-0.092207,0.000029,0.000063
156,0.963867,-0.089565,0.000048,0.000087
157,0.965974,-0.089014,0.000031,0.000017
158,0.965848,-0.089772,0.000031,-0.000047
159,0.960647,-0.092869,0.000020,0.000069
160,0.964701,-0.088686,0.000021,0.000024
161,0.964182,-0.089654,0.000067,0.000043
162,0.960929,-0.092547,-0.000009,-0.000076
163,0.965071,-0.089296,0.000058,0.000032
164,0.963894,-0.091060,0.000034,-0.000036
165,0.965185,-0.089763,0.000011,0.000068
166,0.965207,-0.088520,-0.000027,0.000074
167,0.960312,-0.092717,0.000075,0.000004
168,0.964365,-0.090510,-0.000057,0.000027
169,0.965654,-0.089327,0.000018,0.000017
170,0.964184,-0.089455,-0.000040,0.000021
171,0.960784,-0.092471,-0.000066,-0.000040
172,0.960088,-0.092243,0.000002,0.000071
173,0.964231,-0.088950,0.000006,-0.000030
174,0.959736,-0.092372,-0.000040,0.000082
175,0.960491,-0.092725,-0.000047,-0.000018
176,0.964862,-0.090160,0.000078,-0.000001
177,0.960649,-0.093161,-0.000033,-0.000094
178,0.959994,-0.092560,-0.000033,-0.000030
179,0.965084,-0.089420,-0.000027,-0.000032
180,0.965194,-0.089005,-0.000109,-0.000086
181,0.960230,-0.092624,-0.000018,0.000031
182,0.959937,-0.092986,0.000080,-0.000035
183,0.964949,-0.089752,-0.000063,0.000092
184,0.964977,-0.089726,-0.000071,-0.000001
185,0.964661,-0.090118,0.000000,0.000065
186,0.960578,-0.092476,0.000053,-0.000055
187,0.964363,-0.089571,0.000036,0.000031
188,0.959218,-0.094577,0.000046,-0.000006
189,0.964773,-0.089789,-0.000017,-0.000014
190,0.961054,-0.092625,-0.000027,-0.000020
191,0.964743,-0.088754,0.000000,-0.000006
